12
Mo_int4_prime    Gibbs Free energy (298.15 K) = -857.644663 Ha
O          1.89338        0.63059        0.00304
O         -1.02579       -0.17359        1.87803
O          0.96927       -1.80503        0.40468
O         -1.39064       -0.34504       -1.48546
O          0.24471        0.48446        1.93142
O         -1.75522        0.69505        1.02141
O          0.93285       -1.53934       -0.99911
O         -1.56096       -1.40759       -0.56069
Mo        -0.12370       -0.23246        0.02944
C          1.48738        1.71286       -0.59298
O          2.16218        2.69797       -0.88780
O          0.18315        1.59902       -0.85097
