12
Ta_int4_prime    Gibbs Free energy (298.15 K) = -848.284167 Ha
O          1.72061        1.08511        0.39499
O         -1.03781        0.61583        2.24814
O          1.24751       -1.74119        0.17661
O         -1.49385       -0.37232       -1.40414
O         -0.17160       -0.49994        1.97221
O         -1.14766        1.21706        0.94834
O          1.25942       -1.25283       -1.21557
O         -1.55580       -1.42527       -0.37041
Ta        -0.00966       -0.20712       -0.07612
C          1.49990        1.87119       -0.62670
O          2.18217        2.86528       -0.92976
O          0.43930        1.47219       -1.31021
