12
W_int4_prime    Gibbs Free energy (298.15 K) = -858.002740 Ha
O          1.96735        0.75572        0.08977
O         -0.99057       -0.08762        1.89973
O          1.03693       -1.70924        0.38774
O         -1.35766       -0.23985       -1.43913
O          0.32601        0.51409        1.93358
O         -1.65537        0.81852        1.00811
O          1.01532       -1.37584       -1.03167
O         -1.49037       -1.32728       -0.49786
W         -0.05506       -0.14286        0.03479
C          1.57846        1.79126       -0.58838
O          2.23449        2.77794       -0.90930
O          0.28283        1.62254       -0.90892
