12
Mo_ts4_prime    Gibbs Free energy (298.15 K) = -857.639744 Ha
O          1.90335        0.71586        0.16848
O         -1.10404       -0.21390        1.82065
O          0.98574       -1.85689        0.32345
O         -1.48658       -0.23601       -1.30723
O          0.13790        0.50259        1.80622
O         -2.06456        0.67850        1.36796
O          1.08130       -1.39628       -1.04190
O         -1.51250       -1.44223       -0.56322
Mo        -0.05906       -0.23223       -0.00933
C          1.56840        1.68139       -0.63526
O          2.25439        2.63904       -0.97879
O          0.31226        1.47705       -1.06004
