12
Ta_ts4_prime    Gibbs Free energy (298.15 K) = -848.254848 Ha
O          1.78447        1.02101        0.34070
O         -1.34390        0.39266        1.54225
O          1.34414       -1.80091        0.14013
O         -1.55911       -0.38885       -1.18711
O         -0.14262       -0.35454        1.95114
O         -1.03403        1.76973        1.49040
O          1.26190       -1.28120       -1.24494
O         -1.40121       -1.59614       -0.35580
Ta         0.06559       -0.27729       -0.04991
C          1.47444        1.84353       -0.62878
O          2.09887        2.87094       -0.92995
O          0.38397        1.42907       -1.26076
