12
W_ts4_prime    Gibbs Free energy (298.15 K) = -857.997884 Ha
O          2.00659        0.93798        0.24455
O         -1.17305       -0.24729        1.83794
O          0.98247       -1.71341        0.39302
O         -1.54391        0.17880       -0.99961
O          0.01783        0.82124        1.63491
O         -2.36691        0.29182        1.85041
O          1.29337       -1.25168       -0.95960
O         -1.40818       -1.20983       -0.61282
W          0.07833       -0.04887       -0.03096
C          1.82311        1.69443       -0.79653
O          2.57499        2.53809       -1.26400
O          0.60771        1.40610       -1.31886
