12
Zr_ts4_prime    Gibbs Free energy (298.15 K) = -837.140350 Ha
O          1.76359        1.08341        0.35372
O         -1.52393        0.31859        1.69397
O          1.28511       -1.98374        0.22784
O         -1.73762       -0.48725       -1.26041
O         -0.32978       -0.40858        2.11394
O         -1.23201        1.71453        1.61890
O          1.26566       -1.49985       -1.17903
O         -1.65636       -1.69683       -0.40332
Zr        -0.05177       -0.36915       -0.01496
C          1.46687        1.81516       -0.68097
O          2.13659        2.81829       -1.04466
O          0.39206        1.41264       -1.32334
