10
CrO5CO3    Gibbs Free energy (298.15 K) = -726.139738 Ha
O          1.80960        3.13761        0.73898
O         -1.69855        1.52109       -0.24619
O          0.03915        0.66119       -2.96509
O         -0.61074       -0.79299       -0.82630
O         -1.98199        1.36298       -1.59420
O          1.19122        0.52149       -2.20639
Cr        -0.33985        0.68099       -1.17905
C          1.06972        2.45518       -0.00426
O          0.47984        2.84002       -1.07260
O          0.82586        1.16933        0.29279
