10
HfO5CO3    Gibbs Free energy (298.15 K) = -689.235585 Ha
O          1.93367        3.26420        0.85103
O         -2.02498        1.58825       -0.20729
O          0.05959        0.61212       -3.25753
O         -0.66358       -1.11911       -0.70842
O         -2.25863        1.44031       -1.67958
O          1.32453        0.38000       -2.49066
Hf        -0.36817        0.69119       -1.21979
C          1.19822        2.52290        0.13776
O          0.61266        2.91497       -0.94768
O          0.97097        1.26204        0.45988
