10
VO5CO3    Gibbs Free energy (298.15 K) = -711.436177 Ha
O          1.93317        3.06215        0.92889
O         -1.75497        1.55674       -0.33436
O         -0.06083        0.47544       -3.05951
O         -0.59302       -0.91196       -0.72747
O         -2.11836        1.19416       -1.67135
O          1.14708        0.54415       -2.29287
V         -0.40310        0.59367       -1.22352
C          1.15065        2.55963        0.05716
O          0.68276        3.19959       -0.94007
O          0.80088        1.28331        0.20082
