10
WO5CO3    Gibbs Free energy (298.15 K) = -707.831601 Ha
O          1.84498        3.19491        0.74389
O         -1.82263        1.56200       -0.20287
O          0.05262        0.66498       -3.08114
O         -0.63221       -0.92837       -0.77447
O         -2.08632        1.41151       -1.63425
O          1.27491        0.47717       -2.29917
W         -0.34193        0.71225       -1.19227
C          1.12049        2.47639        0.05068
O          0.49622        2.80197       -1.03823
O          0.87816        1.18408        0.36555
