10
ZrO5CO3    Gibbs Free energy (298.15 K) = -686.884014 Ha
O          1.96903        3.26049        0.88408
O         -2.06968        1.60926       -0.23092
O          0.05939        0.57848       -3.29297
O         -0.67033       -1.13775       -0.69485
O         -2.30220        1.43376       -1.69354
O          1.32633        0.38029       -2.53230
Zr        -0.38115        0.67862       -1.22687
C          1.22310        2.53265        0.16301
O          0.64337        2.94786       -0.91600
O          0.98641        1.27321        0.47808
