12
Hf_ts3    Gibbs Free energy (298.15 K) = -839.489876 Ha
O          2.71186        1.56960        0.19188
O         -1.32736        0.01626        2.07526
O          0.99063       -1.92275        0.35913
O         -1.57977       -0.22080       -1.59738
O          0.12550        0.03297        2.17400
O         -1.62358        1.06630        1.12347
O          1.08309       -1.50544       -1.07237
O         -1.88337       -1.32797       -0.63618
Hf        -0.23528       -0.30532        0.01811
C          1.84500        2.06883       -0.59992
O          2.02986        3.15036       -1.25090
O          0.68229        1.44264       -0.76663
