12
Mo_ts3    Gibbs Free energy (298.15 K) = -857.632670 Ha
O          2.35016        1.10175        0.25300
O         -1.00664       -0.20994        1.90398
O          0.63781       -2.08620        0.36999
O         -1.52993       -0.24192       -1.48031
O          0.30857        0.39103        1.74680
O         -1.81497        0.66970        1.14669
O          1.07063       -1.41473       -0.83890
O         -1.76226       -1.37197       -0.63310
Mo        -0.25991       -0.37182       -0.00074
C          1.66022        1.76599       -0.55801
O          1.92647        2.86141       -1.09860
O          0.43646        1.22360       -0.91980
