12
Nb_ts3    Gibbs Free energy (298.15 K) = -846.695239 Ha
O          2.32035        1.17898        0.26918
O         -1.09268       -0.34414        1.93644
O          0.66282       -2.07508        0.40306
O         -1.62834       -0.01704       -1.40410
O         -0.04324        0.64882        1.66668
O         -2.34630        0.27185        1.92680
O          1.20647       -1.44092       -0.80675
O         -1.80616       -1.28769       -0.70697
Nb        -0.19911       -0.31189       -0.07189
C          1.77227        1.77468       -0.70618
O          2.24102        2.76211       -1.33523
O          0.56692        1.30176       -1.10306
