12
Ti_ts3    Gibbs Free energy (298.15 K) = -848.597149 Ha
O          1.89293        1.02168        0.46993
O         -0.81453        0.28658        2.39912
O          0.48870       -1.93496        0.49817
O         -1.45101       -0.17118       -1.89933
O         -1.10574        0.44911        0.99491
O         -2.01034       -0.05147        3.08608
O          1.14705       -1.64925       -0.77949
O         -1.68408       -1.39751       -1.14680
Ti        -0.21297       -0.38597       -0.46211
C          1.69612        1.63611       -0.63182
O          2.38224        2.62292       -1.04218
O          0.69001        1.18803       -1.37860
