12
Zr_ts3    Gibbs Free energy (298.15 K) = -837.135172 Ha
O          2.25779        1.12912        0.21538
O         -1.22696       -0.10906        2.06734
O          0.87256       -2.07410        0.38894
O         -1.65505       -0.32792       -1.57815
O          0.17309        0.25781        2.15078
O         -1.80825        0.90363        1.21691
O          1.06094       -1.62024       -1.01685
O         -1.89535       -1.42447       -0.60894
Zr        -0.24622       -0.32922        0.01923
C          1.65639        1.87650       -0.62938
O          2.14336        2.95004       -1.10990
O          0.44612        1.48515       -1.01369
