5
CrO4    Gibbs Free energy (298.15 K) = -387.388783 Ha
Cr         1.96131        2.17061        5.13995
O          2.94021        1.28889        4.17831
O          1.03403        3.14811        4.22128
O          1.00602        1.17233        6.00718
O          2.86514        3.07447        6.15301
