5
HfO4    Gibbs Free energy (298.15 K) = -350.337525 Ha
Hf         1.96178        2.16886        5.14054
O          3.14805        1.10483        3.97607
O          0.83921        3.35216        4.03114
O          0.80226        0.96386        6.18862
O          3.05539        3.26469        6.36336
