5
MoO4    Gibbs Free energy (298.15 K) = -368.708273 Ha
Mo         1.96147        2.17117        5.14009
O          3.02843        1.20844        4.09155
O          0.94929        3.23653        4.13765
O          0.91984        1.08171        6.08495
O          2.94767        3.15654        6.24548
