5
NbO4    Gibbs Free energy (298.15 K) = -357.652553 Ha
Nb         1.96125        2.17057        5.13905
O          3.08424        1.15942        4.03887
O          0.89780        3.29177        4.08807
O          0.86720        1.02730        6.13371
O          2.99620        3.20534        6.30004
