5
TiO4    Gibbs Free energy (298.15 K) = -359.474947 Ha
Ti         1.96184        2.16933        5.14044
O          3.06027        1.18407        4.06066
O          0.92330        3.26371        4.11332
O          0.88690        1.05292        6.11196
O          2.97438        3.18436        6.27335
