5
VO4    Gibbs Free energy (298.15 K) = -372.617334 Ha
V          1.96124        2.17075        5.13888
O          2.98910        1.24467        4.13181
O          0.98752        3.19720        4.17646
O          0.96086        1.12469        6.04998
O          2.90799        3.11709        6.20260
