5
WO4    Gibbs Free energy (298.15 K) = -369.067563 Ha
W          1.96144        2.17150        5.13987
O          3.03087        1.20591        4.08955
O          0.94650        3.23914        4.13526
O          0.91778        1.07921        6.08685
O          2.95011        3.15863        6.24819
