5
ZrO4    Gibbs Free energy (298.15 K) = -347.981514 Ha
Zr         1.96194        2.16893        5.14002
O          3.16468        1.08959        3.96089
O          0.82281        3.36876        4.01629
O          0.78728        0.94822        6.20242
O          3.06999        3.27889        6.38011
