12
Mo_int4    Gibbs Free energy (298.15 K) = -857.645407 Ha
O          1.81974        0.85952        0.32264
O         -1.41356       -0.15391        1.71756
O          1.06311       -1.85408        0.21292
O         -1.61791       -0.20127       -1.07094
O         -0.01482        0.21367        1.84995
O         -2.20840        0.95026        1.73959
O          1.20295       -1.28569       -1.10048
O         -1.41417       -1.51094       -0.58159
Mo        -0.00622       -0.23038       -0.02276
C          1.59110        1.66526       -0.67602
O          2.29022        2.59081       -1.06541
O          0.41795        1.32805       -1.24654
