12
Nb_int4    Gibbs Free energy (298.15 K) = -846.708757 Ha
O          1.64689        0.92807        0.39860
O         -1.41122        0.46440        1.42551
O          1.29359       -1.97474        0.14827
O         -1.59468       -0.56557       -1.32413
O         -0.37192       -0.49272        1.85339
O         -1.15058        1.75794        1.89743
O          1.29820       -1.42414       -1.21655
O         -1.47875       -1.75590       -0.48041
Nb        -0.00867       -0.44956       -0.12032
C          1.30771        1.77889       -0.53167
O          1.88729        2.84340       -0.78670
O          0.23617        1.35137       -1.19547
