12
V_int4    Gibbs Free energy (298.15 K) = -861.631401 Ha
O          1.41415        0.79242        0.46661
O         -1.36864        0.54191        1.27296
O          1.21897       -1.93975        0.16687
O         -1.58446       -0.67459       -1.14067
O         -0.58778       -0.63273        1.59989
O         -1.01362        1.64963        2.04842
O          1.26389       -1.31444       -1.10456
O         -1.24129       -1.95178       -0.64367
V         -0.04909       -0.53004       -0.16706
C          1.13998        1.62300       -0.49381
O          1.71186        2.70862       -0.70360
O          0.15776        1.15308       -1.24354
