12
Zr_int4    Gibbs Free energy (298.15 K) = -837.143209 Ha
O          1.72728        1.06127        0.34330
O         -1.44381        0.59203        1.54824
O          1.31262       -2.02595        0.26488
O         -1.67771       -0.57641       -1.36808
O         -0.43617       -0.36423        2.01812
O         -1.22776        1.88864        2.08909
O          1.33141       -1.58321       -1.15889
O         -1.66578       -1.71984       -0.41848
Zr        -0.02926       -0.43496       -0.08090
C          1.40729        1.82021       -0.66533
O          2.05703        2.83613       -1.01691
O          0.32164        1.41755       -1.29630
