12
Cr_ts2    Gibbs Free energy (298.15 K) = -876.281394 Ha
O          2.20347        0.95398        0.28929
O         -0.89743       -0.50792        1.51293
O          0.66411       -2.30774        0.04501
O         -1.48588       -0.56583       -1.68953
O          0.66594        0.06974        1.19726
O         -1.62816        0.45229        0.89916
O          1.01323       -1.50073       -0.98144
O         -1.59120       -1.59368       -0.80027
Cr        -0.24081       -0.57948       -0.22487
C          1.63723        1.45941       -0.74572
O          2.10687        2.41428       -1.40675
O          0.47374        0.93474       -1.15353
