12
Hf_ts2    Gibbs Free energy (298.15 K) = -839.448796 Ha
O          2.14772        1.22846        0.38644
O         -0.84138       -0.49544        1.80324
O          0.66266       -2.50411        0.12167
O         -1.65942       -0.52905       -1.83924
O          0.80875        0.31482        1.28812
O         -1.73005        0.38804        1.05944
O          1.17825       -1.84627       -1.12248
O         -1.93950       -1.75897       -1.03703
Hf        -0.31748       -0.68637       -0.24756
C          1.69361        1.59773       -0.78141
O          2.29936        2.49243       -1.43949
O          0.61857        1.02779       -1.25018
