12
Mo_ts2    Gibbs Free energy (298.15 K) = -857.620474 Ha
O          2.15143        1.11539        0.35208
O         -0.87495       -0.52442        1.63767
O          0.62742       -2.40864        0.04804
O         -1.55182       -0.47026       -1.68276
O          0.66756        0.17038        1.26622
O         -1.65861        0.40122        0.95332
O          1.16315       -1.64902       -1.05374
O         -1.76880       -1.63900       -0.87788
Mo        -0.23335       -0.64666       -0.25444
C          1.67498        1.52615       -0.76508
O          2.16296        2.43987       -1.45453
O          0.56112        0.91405       -1.22738
