12
Nb_ts2    Gibbs Free energy (298.15 K) = -846.672026 Ha
O          2.12916        1.19600        0.38463
O         -0.84821       -0.53100        1.71372
O          0.63116       -2.44387        0.08069
O         -1.60284       -0.49338       -1.75161
O          0.74110        0.24797        1.27555
O         -1.69043        0.38163        1.00811
O          1.17025       -1.74542       -1.09570
O         -1.85779       -1.68962       -0.94476
Nb        -0.27530       -0.66643       -0.25294
C          1.68061        1.56021       -0.77585
O          2.24336        2.45361       -1.45442
O          0.60001        0.95934       -1.24591
