12
Zr_ts2    Gibbs Free energy (298.15 K) = -837.095138 Ha
O          2.14310        1.26798        0.39786
O         -0.83033       -0.48206        1.82377
O          0.65755       -2.54888        0.11647
O         -1.68941       -0.53227       -1.85455
O          0.81102        0.34444        1.28997
O         -1.74439        0.38287        1.09826
O          1.18776       -1.91138       -1.12322
O         -1.98044       -1.75803       -1.06265
Zr        -0.31815       -0.70165       -0.25222
C          1.70946        1.62011       -0.78434
O          2.31489        2.52327       -1.43170
O          0.66005        1.02466       -1.27612
