12
Cr_ts1    Gibbs Free energy (298.15 K) = -876.304333 Ha
O         -2.05467        0.98927        0.70433
O          1.53911       -0.18041        1.56105
O          1.05495        1.55423       -0.39628
O          0.47759       -1.56905       -1.16084
O         -0.86769        0.46629        1.19520
O          1.06624       -1.45942        1.36874
O         -0.03323        1.09216       -1.08250
O          1.60396       -0.79582       -1.13662
Cr         0.49375       -0.15070        0.12378
C         -2.74520        0.10090       -0.19475
O         -3.83584        0.59243       -0.52287
O         -2.17229       -0.95472       -0.48374
