12
Ti_ts1    Gibbs Free energy (298.15 K) = -848.574146 Ha
O         -2.24597        1.00758        0.77989
O          1.64937       -0.17395        1.57350
O          1.17121        1.61655       -0.42853
O          0.46250       -1.64098       -1.29601
O         -1.00116        0.57501        1.36165
O          0.89295       -1.42466        1.52949
O          0.02128        1.22820       -1.24535
O          1.79419       -1.04164       -1.17877
Ti         0.53336       -0.16794        0.01199
C         -2.76236        0.12298       -0.13265
O         -3.88168        0.48845       -0.58907
O         -2.10701       -0.90442       -0.41064
