12
V_ts1    Gibbs Free energy (298.15 K) = -861.619371 Ha
O          2.08569       -1.29982        0.56241
O         -1.42786        0.34634        1.49056
O         -1.20679       -1.39597       -0.45967
O         -0.18527        1.67376       -1.23744
O          0.97659       -0.64660        1.17531
O         -0.58039        1.48950        1.41419
O         -0.06513       -1.07963       -1.24901
O         -1.52022        1.16856       -1.12786
V         -0.39425        0.23416       -0.01084
C          2.78414       -0.49062       -0.32376
O          3.79404       -1.06938       -0.79468
O          2.34824        0.65646       -0.54358
