12
W_ts1    Gibbs Free energy (298.15 K) = -858.009082 Ha
O         -2.16988        0.69430        0.70139
O          2.14026       -0.19708        1.28435
O          1.40527        1.53894       -0.44982
O          0.74228       -1.85983       -0.55997
O         -1.06968       -0.05651        1.19248
O          1.09698       -1.00925        1.88615
O         -0.04322        1.59158       -0.57912
O          0.67503       -0.81310       -1.59094
W          0.59092       -0.09802        0.18739
C         -2.79273        0.08545       -0.43620
O         -3.83580        0.69353       -0.72569
O         -2.21275       -0.88485       -0.93452
