12
Zr_ts1    Gibbs Free energy (298.15 K) = -837.118008 Ha
O         -2.31667        0.86780        0.83780
O          1.99033       -0.09044        1.62711
O          1.16190        1.75926       -0.44657
O          0.48944       -1.82406       -1.26145
O         -1.15704        0.20525        1.36982
O          1.16694       -1.31862        1.81390
O         -0.00898        1.34517       -1.27112
O          1.85892       -1.22351       -1.27837
Zr         0.59513       -0.18774        0.07435
C         -2.91147        0.20362       -0.22204
O         -3.95016        0.79471       -0.61875
O         -2.39164       -0.84627       -0.64918
