10
CrO5CO3    Gibbs Free energy (298.15 K) = -726.118947 Ha
O          2.05112        0.60171        0.05693
O          1.05099       -2.07680       -0.02969
O         -1.48107       -0.32251       -1.12802
O         -0.11601        0.05131        1.15418
O          1.34885       -1.50104       -1.27426
O         -1.30152       -1.58858       -0.59989
Cr         0.12776       -0.48453       -0.29296
C          1.72768        1.35993       -0.92691
O          2.38707        2.29964       -1.40516
O          0.53015        1.02742       -1.42421
