10
HfO5CO3    Gibbs Free energy (298.15 K) = -689.230049 Ha
O          1.98775        1.06636        0.24876
O          1.42361       -2.00650        0.16419
O         -1.66682       -0.40846       -1.19678
O         -0.44108       -0.02037        1.73400
O          1.49989       -1.53399       -1.26303
O         -1.48893       -1.74084       -0.54415
Hf         0.08651       -0.41517       -0.06351
C          1.48057        1.92110       -0.57912
O          2.02819        3.01192       -0.90209
O          0.31383        1.55324       -1.07456
