10
MoO5CO3    Gibbs Free energy (298.15 K) = -707.459289 Ha
O          1.68944        0.73842        0.36464
O          1.41233       -2.20899        0.01095
O         -1.55602       -0.87531       -1.19283
O         -0.37652       -0.49937        1.42925
O          1.68122       -1.44270       -1.19706
O         -1.10930       -2.17840       -0.79693
Mo         0.10223       -0.76205       -0.20014
C          1.25875        1.55173       -0.54293
O          1.70551        2.66641       -0.82813
O          0.19638        1.02120       -1.18123
