10
NbO5CO3    Gibbs Free energy (298.15 K) = -696.480955 Ha
O          1.79395        0.91434        0.34418
O          1.25368       -2.09482        0.12962
O         -1.73846       -0.51536       -1.10374
O         -0.46438       -0.20865        1.62204
O          1.47881       -1.46979       -1.19719
O         -1.43387       -1.86704       -0.63054
Nb        -0.00941       -0.52903       -0.08607
C          1.31986        1.77297       -0.49657
O          1.83140        2.87805       -0.78040
O          0.18426        1.35840       -1.05630
