10
TaO5CO3    Gibbs Free energy (298.15 K) = -698.028367 Ha
O          1.89352        0.93069        0.25094
O          1.37763       -1.93988        0.13094
O         -1.62700       -0.45063       -1.09390
O         -0.37909       -0.06809        1.63132
O          1.46569       -1.41889       -1.26947
O         -1.34810       -1.77900       -0.50942
Ta         0.08608       -0.42647       -0.07057
C          1.41218        1.82348       -0.55613
O          1.95433        2.90223       -0.86321
O          0.22910        1.44895       -1.04228
