10
VO5CO3    Gibbs Free energy (298.15 K) = -711.434419 Ha
O          1.67074        1.92601        0.79318
O          0.92752       -2.37557       -0.54151
O         -1.81048       -0.50418       -0.97114
O         -0.37607       -0.91595        1.42311
O          1.63752       -1.13221       -0.54824
O         -1.59118       -1.91382       -0.85693
V         -0.17274       -0.89925       -0.16086
C          1.24275        1.75109       -0.39127
O          1.76090        2.30344       -1.41614
O          0.15502        0.99423       -0.59375
