10
WO5CO3    Gibbs Free energy (298.15 K) = -707.818328 Ha
O          1.66986        0.80586        0.31575
O          1.54886       -1.99600        0.12564
O         -1.40197       -0.91508       -1.33113
O         -0.47729       -0.40616        1.36333
O          1.73566       -1.40294       -1.22034
O         -0.95115       -2.18685       -0.78342
W          0.16146       -0.67645       -0.22335
C          1.21723        1.65658       -0.55786
O          1.64127        2.78238       -0.80154
O          0.16073        1.10853       -1.19257
