10
ZrO5CO3    Gibbs Free energy (298.15 K) = -686.877030 Ha
O          1.93072        0.99451        0.22676
O          1.31677       -2.16348        0.23597
O         -1.78979       -0.52219       -1.19710
O         -0.52585       -0.08987        1.74781
O          1.45988       -1.71185       -1.18725
O         -1.61804       -1.85277       -0.55291
Zr        -0.00664       -0.52760       -0.05695
C          1.42428        1.81959       -0.63070
O          1.96661        2.91005       -0.97098
O          0.26963        1.43444       -1.13901
