12
Cr_int3    Gibbs Free energy (298.15 K) = -876.303538 Ha
O          2.55014        1.05717        0.07051
O         -0.97652       -0.66429        1.50706
O          0.56192       -2.30744        0.12223
O         -1.39276       -0.22596       -1.51183
O          0.07797        0.27424        1.15945
O         -2.16033       -0.09240        1.57263
O          1.26874       -1.52231       -0.76194
O         -1.65801       -1.44915       -0.93160
Cr        -0.11218       -0.58218       -0.36322
C          1.89124        1.47388       -0.90899
O          2.17087        2.43401       -1.67196
O          0.70491        0.84330       -1.23780
