12
Nb_int3    Gibbs Free energy (298.15 K) = -846.697333 Ha
O          2.49474        1.39596        0.25605
O         -1.09777       -0.37752        1.94313
O          0.50606       -2.19955        0.39856
O         -1.60937       -0.01826       -1.44745
O          0.06150        0.49845        1.70970
O         -2.26343        0.38393        1.79854
O          1.19617       -1.48950       -0.68479
O         -1.87947       -1.28206       -0.76399
Nb        -0.25675       -0.37649       -0.05281
C          1.79382        1.84906       -0.69271
O          2.08219        2.85244       -1.40865
O          0.62634        1.22496       -0.98762
