12
Ta_int3    Gibbs Free energy (298.15 K) = -848.249718 Ha
O          2.66980        1.39298        0.09537
O         -0.93199       -0.08739        1.95668
O          0.54822       -2.09527        0.44883
O         -1.44935       -0.12849       -1.59605
O          0.43339        0.39620        1.81657
O         -1.68232        0.83557        1.13125
O          1.13619       -1.49599       -0.77712
O         -1.80383       -1.28509       -0.74937
Ta        -0.23859       -0.31464       -0.03123
C          1.77442        1.97175       -0.57909
O          1.83047        3.15761       -1.01607
O          0.64610        1.28076       -0.89240
