12
Zr_int3    Gibbs Free energy (298.15 K) = -837.140123 Ha
O          2.86483        1.50384       -0.25179
O         -1.08787       -0.07745        2.07556
O          0.32237       -2.39141        0.53848
O         -1.57006       -0.23528       -1.70227
O          0.31010        0.29622        1.99130
O         -1.78499        0.87016        1.23005
O          1.09806       -1.82215       -0.60114
O         -2.04284       -1.37036       -0.86910
Zr        -0.36313       -0.46246       -0.00423
C          1.74615        1.99026       -0.62686
O          1.54813        3.24435       -0.77216
O          0.73767        1.17151       -0.90616
