9
CrO8    Gibbs Free energy (298.15 K) = -687.803031 Ha
O         -1.13491       -0.17883        0.65789
O          1.34755       -0.51982        1.57996
O          1.55133        1.55409        0.00688
O          0.15400       -1.16206       -1.38908
O         -0.80696        0.94950        1.34624
O          0.88406       -1.75097        1.22733
O          0.48052        1.47443       -0.89536
O          1.50958       -0.86835       -1.18096
Cr         0.53067       -0.03938        0.09075
