9
HfO8    Gibbs Free energy (298.15 K) = -650.913485 Ha
O         -1.58569       -0.04254        0.47849
O          1.83540       -0.65091        1.68661
O          1.60111        1.72822       -0.00254
O          0.16220       -1.29549       -1.52224
O         -0.92338        0.79528        1.52860
O          0.81372       -1.72592        1.48616
O          0.47992        1.75455       -0.99372
O          1.63185       -1.04272       -1.37817
Hf         0.50071       -0.06186        0.16047
