9
MoO8    Gibbs Free energy (298.15 K) = -669.139079 Ha
O         -1.44840       -0.02508        0.48828
O          1.73591       -0.63718        1.59204
O          1.50844        1.63224       -0.01666
O          0.20921       -1.20974       -1.42001
O         -0.72164        0.75001        1.47074
O          0.71605       -1.62862        1.32714
O          0.40230        1.56323       -0.94701
O          1.61283       -0.92676       -1.21150
Mo         0.50113       -0.05949        0.16063
