9
NbO8    Gibbs Free energy (298.15 K) = -658.161209 Ha
O         -1.50395       -0.03904        0.46141
O          1.77993       -0.62629        1.63174
O          1.55583        1.66613       -0.00069
O          0.17959       -1.24377       -1.45533
O         -0.82554        0.76401        1.49429
O          0.76256       -1.67037        1.41702
O          0.44067        1.66293       -0.96474
O          1.62340       -0.99361       -1.29922
Nb         0.50335       -0.06137        0.15919
