9
TaO8    Gibbs Free energy (298.15 K) = -659.712495 Ha
O         -1.49280       -0.03706        0.45302
O          1.77146       -0.61695        1.62405
O          1.55941        1.64983        0.00620
O          0.16974       -1.23618       -1.44193
O         -0.80304        0.76977        1.49159
O          0.74560       -1.66647        1.40024
O          0.43854        1.64211       -0.96856
O          1.62428       -0.98567       -1.28070
Ta         0.50265       -0.06076        0.15976
