9
ZrO8    Gibbs Free energy (298.15 K) = -648.560747 Ha
O         -1.60979       -0.03806        0.48833
O          1.84385       -0.66423        1.71610
O          1.61543        1.75420       -0.01751
O          0.16383       -1.30430       -1.54609
O         -0.95691        0.79569        1.53998
O          0.83357       -1.74324        1.51356
O          0.49229        1.78554       -0.99884
O          1.63103       -1.06539       -1.41321
Zr         0.50255       -0.06160        0.16133
