12
Mo_int1    Gibbs Free energy (298.15 K) = -857.660994 Ha
O         -2.07957        0.74591        0.30184
O          2.11231       -0.46545        1.36085
O          1.65624        1.54955       -0.21895
O          0.75050       -1.69092       -0.81127
O         -1.10647       -0.01042        1.00950
O          0.94210       -1.13822        1.81529
O          0.26086        1.78286       -0.45740
O          0.40953       -0.55650       -1.65497
Mo         0.64264       -0.04870        0.18142
C         -3.01144       -0.08214       -0.42278
O         -3.85892        0.64876       -0.96259
O         -2.84800       -1.30448       -0.40076
