12
Nb_int1    Gibbs Free energy (298.15 K) = -846.710507 Ha
O         -1.96044        0.13790       -0.51223
O          2.31614       -0.72682        1.31084
O          1.84028        1.77259       -0.00599
O          0.62069       -1.34382       -1.32242
O         -1.11963       -0.29146        0.57336
O          1.01512       -0.59275        1.97574
O          0.42258        1.84449       -0.40078
O          1.91229       -0.67122       -1.53381
Nb         0.88231       -0.00911        0.08916
C         -3.32641        0.08196       -0.21493
O         -4.00312        0.46584       -1.19960
O         -3.70095       -0.31137        0.90319
