12
Ta_int1    Gibbs Free energy (298.15 K) = -848.252227 Ha
O         -2.20023        0.77544       -0.10034
O          2.08771       -0.47701        1.38392
O          1.62577        1.77673       -0.10802
O         -0.09296       -1.12238       -1.28868
O         -1.27002        0.25210        0.86012
O          0.74058       -0.90901        1.82745
O          0.33135        1.82035       -0.84066
O          1.39526       -1.03699       -1.30485
Ta         0.63263        0.08773        0.11723
C         -3.34138       -0.01991       -0.27404
O         -4.11970        0.51718       -1.09869
O         -3.45934       -1.08377        0.35647
