12
V_int1    Gibbs Free energy (298.15 K) = -861.640883 Ha
O          1.63539       -1.01983        0.00459
O         -2.03735        0.36832        1.62644
O         -1.86418       -1.47932       -0.07184
O         -0.44332        1.43008       -1.23523
O          0.76313       -0.19328        0.77211
O         -0.99386        1.34376        1.56655
O         -0.84979       -1.31926       -1.06710
O         -1.84735        1.21511       -1.03510
V         -1.02423        0.13118        0.11293
C          2.88815       -0.44318       -0.23947
O          3.62431       -1.24753       -0.86233
O          3.12997        0.71191        0.15207
