12
W_int1    Gibbs Free energy (298.15 K) = -858.013141 Ha
O         -2.08787        0.67432        0.20008
O          2.16522       -0.40759        1.36508
O          1.67325        1.55843       -0.27101
O          0.76831       -1.68621       -0.74390
O         -1.13051       -0.10745        0.91744
O          0.95853       -1.04929        1.86006
O          0.23641        1.78295       -0.39911
O          0.38149       -0.55383       -1.60819
W          0.67363       -0.02276        0.21127
C         -3.09100       -0.13079       -0.43618
O         -3.92032        0.62077       -0.97852
O         -3.00055       -1.35934       -0.35913
