12
Cr_int2    Gibbs Free energy (298.15 K) = -876.331041 Ha
O         -2.11403        1.07228        0.84829
O          1.18978       -0.48317        1.60184
O          1.07701        1.55984       -0.52871
O          0.64808       -1.49190       -1.40552
O         -0.71672        0.98229        1.12526
O          0.30951       -1.45918        1.20954
O          0.10484        1.07397       -1.34588
O          1.69607       -0.84631       -0.84705
Cr         0.24283       -0.13785       -0.03540
C         -2.53911        0.07763        0.01309
O         -3.74842        0.01629       -0.19928
O         -1.62315       -0.67872       -0.46069
