12
Nb_int2    Gibbs Free energy (298.15 K) = -846.714199 Ha
O         -2.33121        0.98838        0.93838
O          1.34168       -0.39277        1.63895
O          1.33470        1.58918       -0.42080
O          0.51574       -1.58591       -1.49453
O         -0.91134        1.10743        1.13847
O          0.34158       -1.45367        1.45805
O          0.30476        1.37685       -1.44619
O          1.84023       -1.12888       -1.07045
Nb         0.35850       -0.14511       -0.10109
C         -2.67167        0.04091        0.03155
O         -3.88287       -0.12025       -0.16390
O         -1.71341       -0.59100       -0.53296
