12
Zr_int2    Gibbs Free energy (298.15 K) = -837.131402 Ha
O         -2.45196        0.98273        0.96005
O          1.43204       -0.41464        1.73282
O          1.43338        1.68209       -0.44993
O          0.52924       -1.65622       -1.57214
O         -1.03329        1.15806        1.17688
O          0.43313       -1.50680        1.56640
O          0.40973        1.48902       -1.51457
O          1.89632       -1.24395       -1.16150
Zr         0.40895       -0.13794       -0.10032
C         -2.75667        0.03748        0.03431
O         -3.97689       -0.13695       -0.16137
O         -1.79728       -0.56773       -0.53514
